blazegraph/test/dss/WSU/PV_10pen_GEN.dss
! New PV systems with 10% penetration throughout system
! PV systems defined using Generator class
New Generator.PV_1000 phases=1 Bus1=SX3216348A.1 kV=0.12 kw=1.9479 kVar=0.19 mode=7
New Generator.PV_1001 phases=1 Bus1=SX3216348A.2 kV=0.12 kw=3.3721 kVar=0.34 mode=7
New Generator.PV_1002 phases=1 Bus1=SX2673331B.1 kV=0.12 kw=2.2378 kVar=0.22 mode=7
New Generator.PV_1003 phases=1 Bus1=SX2673331B.2 kV=0.12 kw=17.2122 kVar=1.72 mode=7
New Generator.PV_1004 phases=1 Bus1=SX3045895C.1 kV=0.12 kw=7.6397 kVar=0.76 mode=7
New Generator.PV_1005 phases=1 Bus1=SX3045895C.2 kV=0.12 kw=2.5303 kVar=0.25 mode=7
New Generator.PV_1006 phases=1 Bus1=SX3104126C.1 kV=0.12 kw=3.5336 kVar=0.35 mode=7
New Generator.PV_1007 phases=1 Bus1=SX3104126C.2 kV=0.12 kw=0.53644 kVar=0.05 mode=7
New Generator.PV_1008 phases=1 Bus1=SX2691946B.1 kV=0.12 kw=2.155 kVar=0.22 mode=7
New Generator.PV_1009 phases=1 Bus1=SX2691946B.2 kV=0.12 kw=3.685 kVar=0.37 mode=7
New Generator.PV_1010 phases=1 Bus1=SX3010565C.1 kV=0.12 kw=1.9073 kVar=0.19 mode=7
New Generator.PV_1011 phases=1 Bus1=SX3010565C.2 kV=0.12 kw=2.1627 kVar=0.22 mode=7
New Generator.PV_1012 phases=1 Bus1=SX2710543C.1 kV=0.12 kw=7.5017 kVar=0.75 mode=7
New Generator.PV_1013 phases=1 Bus1=SX2710543C.2 kV=0.12 kw=2.6683 kVar=0.27 mode=7
New Generator.PV_1014 phases=1 Bus1=SX3085410B.1 kV=0.12 kw=0.072881 kVar=0.01 mode=7
New Generator.PV_1015 phases=1 Bus1=SX3085410B.2 kV=0.12 kw=5.7671 kVar=0.58 mode=7
New Generator.PV_1016 phases=1 Bus1=SX2861197C.1 kV=0.12 kw=3.3057 kVar=0.33 mode=7
New Generator.PV_1017 phases=1 Bus1=SX2861197C.2 kV=0.12 kw=2.7943 kVar=0.28 mode=7
New Generator.PV_1018 phases=1 Bus1=SX2841636B.1 kV=0.12 kw=2.2839 kVar=0.23 mode=7
New Generator.PV_1019 phases=1 Bus1=SX2841636B.2 kV=0.12 kw=3.5561 kVar=0.36 mode=7
New Generator.PV_1020 phases=1 Bus1=SX2955005B.1 kV=0.12 kw=0.38471 kVar=0.04 mode=7
New Generator.PV_1021 phases=1 Bus1=SX2955005B.2 kV=0.12 kw=5.4553 kVar=0.55 mode=7
New Generator.PV_1022 phases=1 Bus1=SX3254214B.1 kV=0.12 kw=4.5622 kVar=0.46 mode=7
New Generator.PV_1023 phases=1 Bus1=SX3254214B.2 kV=0.12 kw=5.1678 kVar=0.52 mode=7
New Generator.PV_1024 phases=1 Bus1=SX3048965B.1 kV=0.12 kw=6.9718 kVar=0.7 mode=7
New Generator.PV_1025 phases=1 Bus1=SX3048965B.2 kV=0.12 kw=7.6182 kVar=0.76 mode=7
New Generator.PV_1026 phases=1 Bus1=SX2674051A.1 kV=0.12 kw=1.1209 kVar=0.11 mode=7
New Generator.PV_1027 phases=1 Bus1=SX2674051A.2 kV=0.12 kw=4.1991 kVar=0.42 mode=7
New Generator.PV_1028 phases=1 Bus1=SX2804252A.1 kV=0.12 kw=0.62414 kVar=0.06 mode=7
New Generator.PV_1029 phases=1 Bus1=SX2804252A.2 kV=0.12 kw=8.2459 kVar=0.82 mode=7
New Generator.PV_1030 phases=1 Bus1=SX3178981B.1 kV=0.12 kw=7.6309 kVar=0.76 mode=7
New Generator.PV_1031 phases=1 Bus1=SX3178981B.2 kV=0.12 kw=2.0991 kVar=0.21 mode=7
New Generator.PV_1032 phases=1 Bus1=SX2710510C.1 kV=0.12 kw=0.15697 kVar=0.02 mode=7
New Generator.PV_1033 phases=1 Bus1=SX2710510C.2 kV=0.12 kw=3.913 kVar=0.39 mode=7
New Generator.PV_1034 phases=1 Bus1=SX2935551C.1 kV=0.12 kw=5.2021 kVar=0.52 mode=7
New Generator.PV_1035 phases=1 Bus1=SX2935551C.2 kV=0.12 kw=0.89794 kVar=0.09 mode=7
New Generator.PV_1036 phases=1 Bus1=SX2729428A.1 kV=0.12 kw=3.0263 kVar=0.3 mode=7
New Generator.PV_1037 phases=1 Bus1=SX2729428A.2 kV=0.12 kw=2.2937 kVar=0.23 mode=7
New Generator.PV_1038 phases=1 Bus1=SX2766721A.1 kV=0.12 kw=8.8088 kVar=0.88 mode=7
New Generator.PV_1039 phases=1 Bus1=SX2766721A.2 kV=0.12 kw=0.061239 kVar=0.01 mode=7
New Generator.PV_1040 phases=1 Bus1=SX2803199B.1 kV=0.12 kw=18.8071 kVar=1.88 mode=7
New Generator.PV_1041 phases=1 Bus1=SX2803199B.2 kV=0.12 kw=0.64293 kVar=0.06 mode=7
New Generator.PV_1042 phases=1 Bus1=SX2804272B.1 kV=0.12 kw=1.3271 kVar=0.13 mode=7
New Generator.PV_1043 phases=1 Bus1=SX2804272B.2 kV=0.12 kw=4.5129 kVar=0.45 mode=7
New Generator.PV_1044 phases=1 Bus1=SX3216347C.1 kV=0.12 kw=4.6603 kVar=0.47 mode=7
New Generator.PV_1045 phases=1 Bus1=SX3216347C.2 kV=0.12 kw=1.4397 kVar=0.14 mode=7
New Generator.PV_1046 phases=1 Bus1=SX3104155C.1 kV=0.12 kw=2.514 kVar=0.25 mode=7
New Generator.PV_1047 phases=1 Bus1=SX3104155C.2 kV=0.12 kw=7.656 kVar=0.77 mode=7
New Generator.PV_1048 phases=1 Bus1=SX2814529C.1 kV=0.12 kw=8.9547 kVar=0.9 mode=7
New Generator.PV_1049 phases=1 Bus1=SX2814529C.2 kV=0.12 kw=11.3853 kVar=1.14 mode=7
New Generator.PV_1050 phases=1 Bus1=SX3048937C.1 kV=0.12 kw=5.3478 kVar=0.53 mode=7
New Generator.PV_1051 phases=1 Bus1=SX3048937C.2 kV=0.12 kw=0.75218 kVar=0.08 mode=7
New Generator.PV_1052 phases=1 Bus1=SX2710544A.1 kV=0.12 kw=0.47336 kVar=0.05 mode=7
New Generator.PV_1053 phases=1 Bus1=SX2710544A.2 kV=0.12 kw=4.8466 kVar=0.48 mode=7
New Generator.PV_1054 phases=1 Bus1=SX2839305A.1 kV=0.12 kw=3.325 kVar=0.33 mode=7
New Generator.PV_1055 phases=1 Bus1=SX2839305A.2 kV=0.12 kw=1.995 kVar=0.2 mode=7
New Generator.PV_1056 phases=1 Bus1=SX3160113B.1 kV=0.12 kw=1.4521 kVar=0.15 mode=7
New Generator.PV_1057 phases=1 Bus1=SX3160113B.2 kV=0.12 kw=8.2779 kVar=0.83 mode=7
New Generator.PV_1058 phases=1 Bus1=SX2673318C.1 kV=0.12 kw=6.7519 kVar=0.68 mode=7
New Generator.PV_1059 phases=1 Bus1=SX2673318C.2 kV=0.12 kw=3.4181 kVar=0.34 mode=7
New Generator.PV_1060 phases=1 Bus1=SX2992556C.1 kV=0.12 kw=2.2638 kVar=0.23 mode=7
New Generator.PV_1061 phases=1 Bus1=SX2992556C.2 kV=0.12 kw=3.8362 kVar=0.38 mode=7
New Generator.PV_1062 phases=1 Bus1=SX2814529A.1 kV=0.12 kw=4.2636 kVar=0.43 mode=7
New Generator.PV_1063 phases=1 Bus1=SX2814529A.2 kV=0.12 kw=13.4764 kVar=1.35 mode=7
New Generator.PV_1064 phases=1 Bus1=SX2785523C.1 kV=0.12 kw=2.5358 kVar=0.25 mode=7
New Generator.PV_1065 phases=1 Bus1=SX2785523C.2 kV=0.12 kw=3.5642 kVar=0.36 mode=7
New Generator.PV_1066 phases=1 Bus1=SX2841638C.1 kV=0.12 kw=0.90563 kVar=0.09 mode=7
New Generator.PV_1067 phases=1 Bus1=SX2841638C.2 kV=0.12 kw=5.1944 kVar=0.52 mode=7
New Generator.PV_1068 phases=1 Bus1=SX3216368C.1 kV=0.12 kw=4.298 kVar=0.43 mode=7
New Generator.PV_1069 phases=1 Bus1=SX3216368C.2 kV=0.12 kw=1.802 kVar=0.18 mode=7
New Generator.PV_1070 phases=1 Bus1=SX2841627A.1 kV=0.12 kw=2.7776 kVar=0.28 mode=7
New Generator.PV_1071 phases=1 Bus1=SX2841627A.2 kV=0.12 kw=2.5424 kVar=0.25 mode=7
New Generator.PV_1072 phases=1 Bus1=SX3197641A.1 kV=0.12 kw=0.77327 kVar=0.08 mode=7
New Generator.PV_1073 phases=1 Bus1=SX3197641A.2 kV=0.12 kw=4.5467 kVar=0.45 mode=7
New Generator.PV_1074 phases=1 Bus1=SX2673319C.1 kV=0.12 kw=2.1676 kVar=0.22 mode=7
New Generator.PV_1075 phases=1 Bus1=SX2673319C.2 kV=0.12 kw=3.9324 kVar=0.39 mode=7
New Generator.PV_1076 phases=1 Bus1=SX2991943C.1 kV=0.12 kw=6.5284 kVar=0.65 mode=7
New Generator.PV_1077 phases=1 Bus1=SX2991943C.2 kV=0.12 kw=3.6416 kVar=0.36 mode=7
New Generator.PV_1078 phases=1 Bus1=SX2891575C.1 kV=0.12 kw=3.0732 kVar=0.31 mode=7
New Generator.PV_1079 phases=1 Bus1=SX2891575C.2 kV=0.12 kw=3.0268 kVar=0.3 mode=7
New Generator.PV_1080 phases=1 Bus1=SX2897767C.1 kV=0.12 kw=5.1262 kVar=0.51 mode=7
New Generator.PV_1081 phases=1 Bus1=SX2897767C.2 kV=0.12 kw=5.0438 kVar=0.5 mode=7
New Generator.PV_1082 phases=1 Bus1=SX3179650B.1 kV=0.12 kw=1.7843 kVar=0.18 mode=7
New Generator.PV_1083 phases=1 Bus1=SX3179650B.2 kV=0.12 kw=4.0557 kVar=0.41 mode=7
New Generator.PV_1084 phases=1 Bus1=SX2897772A.1 kV=0.12 kw=1.6804 kVar=0.17 mode=7
New Generator.PV_1085 phases=1 Bus1=SX2897772A.2 kV=0.12 kw=3.6396 kVar=0.36 mode=7
New Generator.PV_1086 phases=1 Bus1=SX3160106A.1 kV=0.12 kw=6.4922 kVar=0.65 mode=7
New Generator.PV_1087 phases=1 Bus1=SX3160106A.2 kV=0.12 kw=2.3778 kVar=0.24 mode=7
New Generator.PV_1088 phases=1 Bus1=SX3143999A.1 kV=0.12 kw=2.5419 kVar=0.25 mode=7
New Generator.PV_1089 phases=1 Bus1=SX3143999A.2 kV=0.12 kw=6.3281 kVar=0.63 mode=7
New Generator.PV_1090 phases=1 Bus1=SX3254231A.1 kV=0.12 kw=3.5002 kVar=0.35 mode=7
New Generator.PV_1091 phases=1 Bus1=SX3254231A.2 kV=0.12 kw=0.049801 kVar=0 mode=7
New Generator.PV_1092 phases=1 Bus1=SX2936279C.1 kV=0.12 kw=1.9137 kVar=0.19 mode=7
New Generator.PV_1093 phases=1 Bus1=SX2936279C.2 kV=0.12 kw=8.2563 kVar=0.83 mode=7
New Generator.PV_1094 phases=1 Bus1=SX2767409B.1 kV=0.12 kw=6.9735 kVar=0.7 mode=7
New Generator.PV_1095 phases=1 Bus1=SX2767409B.2 kV=0.12 kw=2.7565 kVar=0.28 mode=7
New Generator.PV_1096 phases=1 Bus1=SX3067478A.1 kV=0.12 kw=1.3327 kVar=0.13 mode=7
New Generator.PV_1097 phases=1 Bus1=SX3067478A.2 kV=0.12 kw=11.9673 kVar=1.2 mode=7
New Generator.PV_1098 phases=1 Bus1=SX2691945C.1 kV=0.12 kw=5.0261 kVar=0.5 mode=7
New Generator.PV_1099 phases=1 Bus1=SX2691945C.2 kV=0.12 kw=5.1439 kVar=0.51 mode=7
New Generator.PV_1100 phases=1 Bus1=SX3104132A.1 kV=0.12 kw=2.8003 kVar=0.28 mode=7
New Generator.PV_1101 phases=1 Bus1=SX3104132A.2 kV=0.12 kw=2.5197 kVar=0.25 mode=7
New Generator.PV_1102 phases=1 Bus1=SX2785538A.1 kV=0.12 kw=8.6677 kVar=0.87 mode=7
New Generator.PV_1103 phases=1 Bus1=SX2785538A.2 kV=0.12 kw=0.20232 kVar=0.02 mode=7
New Generator.PV_1104 phases=1 Bus1=SX2785513A.1 kV=0.12 kw=0.83925 kVar=0.08 mode=7
New Generator.PV_1105 phases=1 Bus1=SX2785513A.2 kV=0.12 kw=8.0308 kVar=0.8 mode=7
New Generator.PV_1106 phases=1 Bus1=SX3082992A.1 kV=0.12 kw=1.4152 kVar=0.14 mode=7
New Generator.PV_1107 phases=1 Bus1=SX3082992A.2 kV=0.12 kw=3.9048 kVar=0.39 mode=7
New Generator.PV_1108 phases=1 Bus1=SX3178997C.1 kV=0.12 kw=2.2095 kVar=0.22 mode=7
New Generator.PV_1109 phases=1 Bus1=SX3178997C.2 kV=0.12 kw=3.8905 kVar=0.39 mode=7
New Generator.PV_1110 phases=1 Bus1=SX3233412A.1 kV=0.12 kw=14.47 kVar=1.45 mode=7
New Generator.PV_1111 phases=1 Bus1=SX3233412A.2 kV=0.12 kw=3.27 kVar=0.33 mode=7
New Generator.PV_1112 phases=1 Bus1=SX3215203A.1 kV=0.12 kw=6.4353 kVar=0.64 mode=7
New Generator.PV_1113 phases=1 Bus1=SX3215203A.2 kV=0.12 kw=11.3047 kVar=1.13 mode=7
New Generator.PV_1114 phases=1 Bus1=SX3728043A.1 kV=0.12 kw=4.9337 kVar=0.49 mode=7
New Generator.PV_1115 phases=1 Bus1=SX3728043A.2 kV=0.12 kw=8.3663 kVar=0.84 mode=7
New Generator.PV_1116 phases=1 Bus1=SX2897768C.1 kV=0.12 kw=0.84625 kVar=0.08 mode=7
New Generator.PV_1117 phases=1 Bus1=SX2897768C.2 kV=0.12 kw=9.3237 kVar=0.93 mode=7
New Generator.PV_1118 phases=1 Bus1=SX2786274C.1 kV=0.12 kw=4.8634 kVar=0.49 mode=7
New Generator.PV_1119 phases=1 Bus1=SX2786274C.2 kV=0.12 kw=5.3066 kVar=0.53 mode=7
New Generator.PV_1120 phases=1 Bus1=SX3217064B.1 kV=0.12 kw=0.613 kVar=0.06 mode=7
New Generator.PV_1121 phases=1 Bus1=SX3217064B.2 kV=0.12 kw=9.117 kVar=0.91 mode=7
New Generator.PV_1122 phases=1 Bus1=SX2805036B.1 kV=0.12 kw=1.8518 kVar=0.19 mode=7
New Generator.PV_1123 phases=1 Bus1=SX2805036B.2 kV=0.12 kw=2.0382 kVar=0.2 mode=7
New Generator.PV_1124 phases=1 Bus1=SX3160862C.1 kV=0.12 kw=0.72353 kVar=0.07 mode=7
New Generator.PV_1125 phases=1 Bus1=SX3160862C.2 kV=0.12 kw=5.3765 kVar=0.54 mode=7
New Generator.PV_1126 phases=1 Bus1=SX2936214A.1 kV=0.12 kw=5.5039 kVar=0.55 mode=7
New Generator.PV_1127 phases=1 Bus1=SX2936214A.2 kV=0.12 kw=3.3661 kVar=0.34 mode=7
New Generator.PV_1128 phases=1 Bus1=SX3104134C.1 kV=0.12 kw=8.4661 kVar=0.85 mode=7
New Generator.PV_1129 phases=1 Bus1=SX3104134C.2 kV=0.12 kw=1.7039 kVar=0.17 mode=7
New Generator.PV_1130 phases=1 Bus1=SX2955077C.1 kV=0.12 kw=9.6279 kVar=0.96 mode=7
New Generator.PV_1131 phases=1 Bus1=SX2955077C.2 kV=0.12 kw=0.54214 kVar=0.05 mode=7
New Generator.PV_1132 phases=1 Bus1=SX2954350C.1 kV=0.12 kw=4.3598 kVar=0.44 mode=7
New Generator.PV_1133 phases=1 Bus1=SX2954350C.2 kV=0.12 kw=1.7402 kVar=0.17 mode=7
New Generator.PV_1134 phases=1 Bus1=SX2804283A.1 kV=0.12 kw=7.5175 kVar=0.75 mode=7
New Generator.PV_1135 phases=1 Bus1=SX2804283A.2 kV=0.12 kw=1.3525 kVar=0.14 mode=7
New Generator.PV_1136 phases=1 Bus1=SX2841616A.1 kV=0.12 kw=7.0459 kVar=0.7 mode=7
New Generator.PV_1137 phases=1 Bus1=SX2841616A.2 kV=0.12 kw=1.8241 kVar=0.18 mode=7
New Generator.PV_1138 phases=1 Bus1=SX3011293C.1 kV=0.12 kw=17.5202 kVar=1.75 mode=7
New Generator.PV_1139 phases=1 Bus1=SX3011293C.2 kV=0.12 kw=2.8198 kVar=0.28 mode=7
New Generator.PV_1140 phases=1 Bus1=SX2766750C.1 kV=0.12 kw=9.8932 kVar=0.99 mode=7
New Generator.PV_1141 phases=1 Bus1=SX2766750C.2 kV=0.12 kw=5.3668 kVar=0.54 mode=7
New Generator.PV_1142 phases=1 Bus1=SX2973148A.1 kV=0.12 kw=5.2597 kVar=0.53 mode=7
New Generator.PV_1143 phases=1 Bus1=SX2973148A.2 kV=0.12 kw=3.6103 kVar=0.36 mode=7
New Generator.PV_1144 phases=1 Bus1=SX3235243C.1 kV=0.12 kw=8.951 kVar=0.9 mode=7
New Generator.PV_1145 phases=1 Bus1=SX3235243C.2 kV=0.12 kw=1.219 kVar=0.12 mode=7
New Generator.PV_1146 phases=1 Bus1=SX2822867B.1 kV=0.12 kw=0.41993 kVar=0.04 mode=7
New Generator.PV_1147 phases=1 Bus1=SX2822867B.2 kV=0.12 kw=5.4201 kVar=0.54 mode=7
New Generator.PV_1148 phases=1 Bus1=SX2992657A.1 kV=0.12 kw=4.3448 kVar=0.43 mode=7
New Generator.PV_1149 phases=1 Bus1=SX2992657A.2 kV=0.12 kw=4.5252 kVar=0.45 mode=7
New Generator.PV_1150 phases=1 Bus1=SX3101194C.1 kV=0.12 kw=30.1838 kVar=3.02 mode=7
New Generator.PV_1151 phases=1 Bus1=SX3101194C.2 kV=0.12 kw=0.33615 kVar=0.03 mode=7
New Generator.PV_1152 phases=1 Bus1=SX2748143A.1 kV=0.12 kw=2.1588 kVar=0.22 mode=7
New Generator.PV_1153 phases=1 Bus1=SX2748143A.2 kV=0.12 kw=6.7112 kVar=0.67 mode=7
New Generator.PV_1154 phases=1 Bus1=SX3252336B.1 kV=0.12 kw=4.0442 kVar=0.4 mode=7
New Generator.PV_1155 phases=1 Bus1=SX3252336B.2 kV=0.12 kw=10.5458 kVar=1.05 mode=7
New Generator.PV_1156 phases=1 Bus1=SX2710521A.1 kV=0.12 kw=0.66491 kVar=0.07 mode=7
New Generator.PV_1157 phases=1 Bus1=SX2710521A.2 kV=0.12 kw=8.2051 kVar=0.82 mode=7
New Generator.PV_1158 phases=1 Bus1=SX3104144A.1 kV=0.12 kw=0.48914 kVar=0.05 mode=7
New Generator.PV_1159 phases=1 Bus1=SX3104144A.2 kV=0.12 kw=3.0609 kVar=0.31 mode=7
New Generator.PV_1160 phases=1 Bus1=SX2730149C.1 kV=0.12 kw=3.6514 kVar=0.37 mode=7
New Generator.PV_1161 phases=1 Bus1=SX2730149C.2 kV=0.12 kw=2.4486 kVar=0.24 mode=7
New Generator.PV_1162 phases=1 Bus1=SX2879078A.1 kV=0.12 kw=1.8109 kVar=0.18 mode=7
New Generator.PV_1163 phases=1 Bus1=SX2879078A.2 kV=0.12 kw=3.5091 kVar=0.35 mode=7
New Generator.PV_1164 phases=1 Bus1=SX3197637C.1 kV=0.12 kw=0.86356 kVar=0.09 mode=7
New Generator.PV_1165 phases=1 Bus1=SX3197637C.2 kV=0.12 kw=3.2064 kVar=0.32 mode=7
New Generator.PV_1166 phases=1 Bus1=SX2897792A.1 kV=0.12 kw=4.7783 kVar=0.48 mode=7
New Generator.PV_1167 phases=1 Bus1=SX2897792A.2 kV=0.12 kw=0.54168 kVar=0.05 mode=7
New Generator.PV_1168 phases=1 Bus1=SX2673317A.1 kV=0.12 kw=4.7892 kVar=0.48 mode=7
New Generator.PV_1169 phases=1 Bus1=SX2673317A.2 kV=0.12 kw=0.53083 kVar=0.05 mode=7
New Generator.PV_1170 phases=1 Bus1=SX3198347C.1 kV=0.12 kw=0.96227 kVar=0.1 mode=7
New Generator.PV_1171 phases=1 Bus1=SX3198347C.2 kV=0.12 kw=5.1377 kVar=0.51 mode=7
New Generator.PV_1172 phases=1 Bus1=SX2897789B.1 kV=0.12 kw=4.3277 kVar=0.43 mode=7
New Generator.PV_1173 phases=1 Bus1=SX2897789B.2 kV=0.12 kw=1.5123 kVar=0.15 mode=7
New Generator.PV_1174 phases=1 Bus1=SX2691951C.1 kV=0.12 kw=5.5343 kVar=0.55 mode=7
New Generator.PV_1175 phases=1 Bus1=SX2691951C.2 kV=0.12 kw=4.6357 kVar=0.46 mode=7
New Generator.PV_1176 phases=1 Bus1=SX2673308B.1 kV=0.12 kw=10.7677 kVar=1.08 mode=7
New Generator.PV_1177 phases=1 Bus1=SX2673308B.2 kV=0.12 kw=3.8223 kVar=0.38 mode=7
New Generator.PV_1178 phases=1 Bus1=SX3215203C.1 kV=0.12 kw=4.6182 kVar=0.46 mode=7
New Generator.PV_1179 phases=1 Bus1=SX3215203C.2 kV=0.12 kw=15.7218 kVar=1.57 mode=7
New Generator.PV_1180 phases=1 Bus1=SX2879076C.1 kV=0.12 kw=2.6128 kVar=0.26 mode=7
New Generator.PV_1181 phases=1 Bus1=SX2879076C.2 kV=0.12 kw=1.4572 kVar=0.15 mode=7
New Generator.PV_1182 phases=1 Bus1=SX2990098A.1 kv=0.12 kW=25.9395 kVar=2.59 mode=7
New Generator.PV_1183 phases=1 Bus1=SX2785515C.1 kv=0.12 kW=19.2674 kVar=1.93 mode=7